12

H    0.00065869 -0.0002681   0.00051837
H    0.00029486  0.00024596  0.00026553
H   -0.000938   -0.00015164 -0.00081089
C    0.0000601  -0.0000001   0.00000036
N   -0.00018294  0.0001205   0.00008129
H   -0.0002797   0.00074763  0.00017089
O    0.00011405  0.00014041  0.0000308 
C    0.00010799 -0.00018652 -0.00014272
C   -0.00006575 -0.00012642  0.00009962
H    0.0005312  -0.00066272  0.00001692
H   -0.00041876  0.0012091  -0.0002002 
H   -0.00000625 -0.00112867 -0.00102204
